Circuit: * C:\Users\win10\OneDrive\Masaüstü\elm_build_experiment\1_1.asc

Direct Newton iteration for .op point succeeded.

Date: Fri May 31 01:21:53 2024
Total elapsed time: 0.083 seconds.

tnom = 27
temp = 27
method = modified trap
totiter = 2101
traniter = 2088
tranpoints = 1045
accept = 1045
rejected = 0
matrix size = 14
fillins = 3
solver = Normal
Avg thread counts: 2.3/3.6/3.6/2.3
Matrix Compiler1: 796 bytes object code size  0.3/0.2/[0.1]
Matrix Compiler2: 1.30 KB object code size  0.1/0.3/[0.1]

