Circuit: * C:\Users\win10\OneDrive\Masaüstü\elm_build_experiment\Draft1.asc

Direct Newton iteration for .op point succeeded.

Date: Fri May 31 02:28:40 2024
Total elapsed time: 0.099 seconds.

tnom = 27
temp = 27
method = modified trap
totiter = 2129
traniter = 2088
tranpoints = 1045
accept = 1045
rejected = 0
matrix size = 21
fillins = 4
solver = Normal
Avg thread counts: 2.3/3.6/3.6/2.3
Matrix Compiler1: 1.25 KB object code size  0.4/0.3/[0.2]
Matrix Compiler2: off  [0.2]/0.4/0.3

